12
Energy =
Au    1.3000000    0.0000000    3.5000000 
Au   -1.3000000    0.0000000    3.5000000 
C    -0.4088590    0.1102050    0.3812890 
C    -1.2458680   -1.0369780   -0.1089200 
H    -0.4269420    0.2165040    1.4772479 
F    -0.8439800    1.2708970   -0.1650340 
Cl    1.3131890   -0.1259240   -0.0545860 
H    -0.9085270   -1.9807100    0.3395770 
H    -1.1674620   -1.1107930   -1.2025630 
H    -2.2971089   -0.8617310    0.1647920 
Au    1.3000000    0.0000000   -3.3000000 
Au   -1.3000000    0.0000000   -3.3000000 
